BEGIN MODFLOW_GRID grid01mfg
	ROTATION_ANGLE = 0
	X_OFFSET = 543750
	Y_OFFSET = 2792250
	LENGTH_UNIT = undefined
	NLAY = 1
	NROW = 100
	NCOL = 58
	DELR =  CONSTANT 800.
	DELC =  CONSTANT 800.
	TOP =  OPEN/CLOSE grid01mfg.top.dat
	BOTTOM LAYER 1 =  OPEN/CLOSE grid01mfg.bot.dat
END MODFLOW_GRID

BEGIN QUADTREE grid02qtg
	MODFLOW_GRID = grid01mfg
	STRUCTURE_File  = OPEN/CLOSE grid02qtg.tsf
	TOP LAYER 1 = OPEN/CLOSE grid02qtg.top1.dat
	BOTTOM LAYER 1 = OPEN/CLOSE grid02qtg.bot1.dat
END QUADTREE
